Version 4
SHEET 1 880 680
SYMBOL SpecialFunctions\\ota 352 368 R180
SYMATTR InstName A1
