Version 4
SHEET 1 880 680
SYMBOL Contrib\\Wurth\\EMC-Components\\LineFilter\\WE-CLFS-Single-Stage-Advanced 224 192 R0
SYMATTR InstName U1
