Version 4
SHEET 1 880 680
WIRE 64 144 -32 144
WIRE 208 144 160 144
WIRE 304 144 208 144
WIRE 448 144 384 144
WIRE 560 144 448 144
WIRE 448 160 448 144
WIRE 560 160 560 144
WIRE -32 192 -32 144
WIRE 144 192 112 192
WIRE 208 208 208 144
WIRE 112 224 112 192
WIRE 160 288 144 288
WIRE -32 336 -32 272
WIRE 32 336 -32 336
WIRE 208 336 208 304
WIRE 208 336 32 336
WIRE 448 336 448 224
WIRE 448 336 208 336
WIRE 560 336 560 240
WIRE 560 336 448 336
WIRE 32 384 32 336
WIRE 112 384 112 304
WIRE 144 384 144 288
WIRE 208 384 144 384
FLAG 32 384 0
FLAG 112 464 0
FLAG 208 464 0
SYMBOL ind 288 160 R270
WINDOW 0 32 56 VTop 2
WINDOW 3 5 56 VBottom 2
SYMATTR InstName L1
SYMATTR Value 46µ
SYMBOL voltage -32 176 R0
WINDOW 123 0 0 Left 0
WINDOW 39 0 0 Left 0
SYMATTR InstName V1
SYMATTR Value 24
SYMBOL nmos 64 192 R270
SYMATTR InstName M1
SYMATTR Value IRFH5104
SYMBOL nmos 160 208 R0
SYMATTR InstName M2
SYMATTR Value IRFH5104
SYMBOL cap 432 160 R0
SYMATTR InstName C1
SYMATTR Value 22µ
SYMBOL res 544 144 R0
SYMATTR InstName R1
SYMATTR Value 10R
SYMBOL voltage 112 368 R0
WINDOW 3 -329 135 Left 2
WINDOW 123 0 0 Left 0
WINDOW 39 0 0 Left 0
SYMATTR Value PULSE(0 15V 0 0.1n 0.1n 2u 4.4u)
SYMATTR InstName V2
SYMBOL voltage 208 368 R0
WINDOW 123 0 0 Left 0
WINDOW 39 0 0 Left 0
SYMATTR InstName V3
SYMATTR Value PULSE(0 15V 2u 0.1n 0.1n 2u 4.4u)
SYMBOL res 96 208 R0
SYMATTR InstName R2
SYMATTR Value 22R
TEXT -64 408 Left 2 !.tran 5m uic
